Version 4
SHEET 1 1388 680
WIRE 240 16 -48 16
WIRE 528 16 240 16
WIRE 800 16 528 16
WIRE -48 64 -48 16
WIRE 240 64 240 16
WIRE 528 64 528 16
WIRE 800 64 800 16
WIRE -48 224 -48 144
WIRE 48 224 -48 224
WIRE 240 224 240 144
WIRE 240 224 128 224
WIRE 288 224 240 224
WIRE 400 224 368 224
WIRE 528 224 528 144
WIRE 528 224 480 224
WIRE 624 224 528 224
WIRE 800 224 800 144
WIRE 800 224 704 224
WIRE 240 240 240 224
WIRE 800 288 800 224
WIRE 848 288 800 288
WIRE -48 304 -48 224
WIRE 528 304 528 224
WIRE 800 304 800 288
WIRE 64 320 0 320
WIRE 240 336 240 320
WIRE 16 368 0 368
WIRE -48 432 -48 384
WIRE 64 432 64 320
WIRE 64 432 -48 432
WIRE 240 432 240 416
WIRE 240 432 64 432
WIRE 384 432 240 432
WIRE 528 432 528 384
WIRE 528 432 384 432
WIRE 800 432 800 384
WIRE 800 432 528 432
WIRE 384 464 384 432
FLAG 384 464 0
FLAG 16 368 a
IOPIN 16 368 In
FLAG 848 288 a
IOPIN 848 288 Out
SYMBOL res -64 48 R0
SYMATTR InstName R1
SYMATTR Value 1k
SYMBOL res 32 240 R270
WINDOW 0 32 56 VTop 2
WINDOW 3 0 56 VBottom 2
SYMATTR InstName R2
SYMATTR Value 1k
SYMBOL voltage 240 48 R0
SYMATTR InstName V1
SYMATTR Value 12
SYMBOL res 384 208 R90
WINDOW 0 0 56 VBottom 2
WINDOW 3 32 56 VTop 2
SYMATTR InstName R3
SYMATTR Value 1k
SYMBOL res 512 48 R0
SYMATTR InstName R4
SYMATTR Value 1k
SYMBOL res 608 240 R270
WINDOW 0 32 56 VTop 2
WINDOW 3 0 56 VBottom 2
SYMATTR InstName R5
SYMATTR Value 1k
SYMBOL current 800 144 R180
WINDOW 0 24 80 Left 2
WINDOW 3 24 0 Left 2
SYMATTR InstName I1
SYMATTR Value 6m
SYMBOL res 816 400 R180
WINDOW 0 36 76 Left 2
WINDOW 3 36 40 Left 2
SYMATTR InstName R6
SYMATTR Value 1k
SYMBOL f 528 384 R180
WINDOW 0 24 80 Left 2
WINDOW 3 24 0 Left 2
SYMATTR InstName F1
SYMATTR Value Ix 2
SYMBOL res 256 336 R180
WINDOW 0 36 76 Left 2
WINDOW 3 36 40 Left 2
SYMATTR InstName R7
SYMATTR Value 1k
SYMBOL e -48 400 R180
SYMATTR InstName E1
SYMATTR Value 2
SYMBOL voltage 240 320 R0
SYMATTR InstName Ix
SYMATTR Value 0
SYMBOL voltage 384 224 R270
WINDOW 0 32 56 VTop 2
WINDOW 3 -32 56 VBottom 2
SYMATTR InstName I0
SYMATTR Value 0
TEXT 776 448 Left 2 !.op
TEXT 904 -80 Left 2 ;--- Operating Point ---\n \nV(n001):         10.8            voltage\nV(n002):         4.32            voltage\nV(n003):         -1.2            voltage\nV(n004):         1.68            voltage\nV(n005):         1.68            voltage\nV(a):            -2.16           voltage\nV(n006):         0               voltage\nI(F1):           -0.0024         device_current\nI(I1):           0.006           device_current\nI(R1):           0.00648         device_current\nI(R2):           0.00552         device_current\nI(R3):           0.00288         device_current\nI(R4):           0.00912         device_current\nI(R5):           0.00384         device_current\nI(R6):           0.00216         device_current\nI(R7):           0.0012          device_current\nI(E1):           -0.00096        device_current\nI(V1):           -0.0096         device_current\nI(Ix):           -0.0012         device_current\nI(I0):           -0.00288        device_current
